
    $*$$$$$$$$$$$$$$$$$$$$$$$$$$$$$$$$$$$$$$$$$$$$$$$$$$$$$$$$$$$$$$$$$
$*
$*                    Aeroelasticity approximation of hydrodynamic damping
$*                    for Simcenter Nastran version 2020.2
$*
$*        ANALYSIS TYPE: Structural
$*        SOLUTION NAME: Modes
$*        SOLUTION TYPE: SOL 103 Real Eigenvalues
$*
$*                UNITS: mm (milli-newton)
$*                      ... LENGTH : mm
$*                      ... TIME   : sec
$*                      ... MASS   : kilogram (kg)
$*                      ... TEMPERATURE : deg Celsius
$*                      ... FORCE  : milli-newton
$*                      ... THERMAL ENERGY : mN-mm (micro-joule)
$*
$*$$$$$$$$$$$$$$$$$$$$$$$$$$$$$$$$$$$$$$$$$$$$$$$$$$$$$$$$$$$$$$$$$
$*
$*$$$$$$$$$$$$$$$$$$$$$$$$$$$$$$$$$$$
$*
$* FILE MANAGEMENT
$*
$*$$$$$$$$$$$$$$$$$$$$$$$$$$$$$$$$$$$
$*
$*
$*$$$$$$$$$$$$$$$$$$$$$$$$$$$$$$$$$$$
$*
$* EXECUTIVE CONTROL
$*
$*$$$$$$$$$$$$$$$$$$$$$$$$$$$$$$$$$$$
$*
ID, modal analysis
SOL 103
CEND
$*
$*$$$$$$$$$$$$$$$$$$$$$$$$$$$$$$$$$$$
$*
$* CASE CONTROL
$*
$*$$$$$$$$$$$$$$$$$$$$$$$$$$$$$$$$$$$
$*
ECHO = NONE
SPC = 100
METHOD = 101
OUTPUT
AEROF = ALL
APRESSURE = ALL
DISPLACEMENT(PLOT,REAL) = ALL
EDE(PLOT,AVERAGE,RMAG) = ALL
FORCE(PLOT,REAL,CENTER) = ALL
SPCFORCES(PLOT,REAL) = ALL
STRESS(PLOT,REAL,VONMISES,CENTER) = ALL
$*  Step: Subcase - Static Loads 1
SUBCASE 1
  LABEL = Subcase - Eigenvalue Method 1
  METHOD = 101
  OUTPUT
  AEROF = ALL
  APRESSURE = ALL
  DISPLACEMENT(PLOT,REAL) = ALL
  EDE(PLOT,AVERAGE,RMAG) = ALL
  FORCE(PLOT,REAL,CENTER) = ALL
  SPCFORCES(PLOT,REAL) = ALL
  STRESS(PLOT,REAL,VONMISES,CENTER) = ALL
$*
$*$$$$$$$$$$$$$$$$$$$$$$$$$$$$$$$$$$$
$*
$* BULK DATA
$*
$*$$$$$$$$$$$$$$$$$$$$$$$$$$$$$$$$$$$
$*
BEGIN BULK
$*
$* SOLUTION CARDS
$*
$*  Modeling Object: Real Eigenvalue - Lanczos1
EIGRL, 101, 10.0000, 30.0E3, 50, 0, 7, , MASS
$* PARAM CARDS
$*
PARAM      K6ROT100.0000
PARAM     OIBULK     YES
PARAM    OMACHPR     YES
PARAM       POST      -2
PARAM    POSTEXT     YES
PARAM    UNITSYS   MN-MM
$*
$* Materials and properties
$*
$* Material used
MAT1, 1, 115000000.0, , 0.33, 7.8e-06
$* Solid property
PSOLID, 1, 1
$*
$* Elements
$* Element CARDS: Pentahedrons
$*
CPENTA, 1, 1, 79, 80, 181, 625, 626, 727
, 163, 214, 215, 498, 499, 514, 709, 760
, 761
CPENTA, 2, 1, 8, 9, 181, 554, 555, 727
, 92, 216, 217, 427, 428, 514, 638, 762
, 763
CPENTA, 3, 1, 78, 79, 182, 624, 625, 728
, 162, 218, 219, 497, 498, 515, 708, 764
, 765
CPENTA, 4, 1, 9, 10, 182, 555, 556, 728
, 93, 220, 221, 428, 429, 515, 639, 766
, 767
CPENTA, 5, 1, 3, 85, 174, 549, 631, 720
, 222, 223, 224, 422, 504, 507, 768, 769
, 770
CPENTA, 6, 1, 85, 3, 173, 631, 549, 719
, 222, 225, 226, 504, 422, 506, 768, 771
, 772
CPENTA, 7, 1, 77, 78, 192, 623, 624, 738
, 161, 227, 228, 496, 497, 525, 707, 773
, 774
CPENTA, 8, 1, 10, 11, 192, 556, 557, 738
, 94, 229, 230, 429, 430, 525, 640, 775
, 776
CPENTA, 9, 1, 43, 45, 175, 589, 591, 721
, 231, 232, 233, 462, 464, 508, 777, 778
, 779
CPENTA, 10, 1, 4, 84, 173, 550, 630, 719
, 234, 235, 236, 423, 503, 506, 780, 781
, 782
CPENTA, 11, 1, 40, 41, 193, 586, 587, 739
, 124, 237, 238, 459, 460, 526, 670, 783
, 784
CPENTA, 12, 1, 47, 48, 193, 593, 594, 739
, 131, 239, 240, 466, 467, 526, 677, 785
, 786
CPENTA, 13, 1, 84, 4, 176, 630, 550, 722
, 234, 241, 242, 503, 423, 509, 780, 787
, 788
CPENTA, 14, 1, 76, 77, 199, 622, 623, 745
, 160, 243, 244, 495, 496, 532, 706, 789
, 790
CPENTA, 15, 1, 11, 12, 199, 557, 558, 745
, 95, 245, 246, 430, 431, 532, 641, 791
, 792
CPENTA, 16, 1, 5, 83, 176, 551, 629, 722
, 247, 248, 249, 424, 502, 509, 793, 794
, 795
CPENTA, 17, 1, 83, 5, 177, 629, 551, 723
, 247, 250, 251, 502, 424, 510, 793, 796
, 797
CPENTA, 18, 1, 75, 76, 203, 621, 622, 749
, 159, 252, 253, 494, 495, 536, 705, 798
, 799
CPENTA, 19, 1, 12, 13, 203, 558, 559, 749
, 96, 254, 255, 431, 432, 536, 642, 800
, 801
CPENTA, 20, 1, 6, 82, 177, 552, 628, 723
, 256, 257, 258, 425, 501, 510, 802, 803
, 804
$ ... 9900 like lines cut
$*
$* GRID CARDS
$*
GRID, 1, , 250.0, 0.0, 1.3558, , 456 
GRID, 2, , 250.0, 0.0, -1.3558, , 456 
GRID, 3, , 244.0415, 0.0, 1.4994, , 456 
GRID, 4, , 238.0829, 0.0, 1.6398, , 456 
GRID, 5, , 232.1242, 0.0, 1.7767, , 456 
GRID, 6, , 226.1654, 0.0, 1.9103, , 456 
GRID, 7, , 220.2066, 0.0, 2.0404, , 456 
GRID, 8, , 214.2477, 0.0, 2.1673, , 456 
GRID, 9, , 208.2888, 0.0, 2.2909, , 456 
GRID, 10, , 202.3297, 0.0, 2.4108, , 456 
GRID, 11, , 196.3706, 0.0, 2.5271, , 456 
GRID, 12, , 190.4114, 0.0, 2.6397, , 456 
GRID, 13, , 184.4522, 0.0, 2.7485, , 456 
GRID, 14, , 178.4928, 0.0, 2.8534, , 456 
GRID, 15, , 172.5334, 0.0, 2.9542, , 456 
GRID, 16, , 166.574, 0.0, 3.0505, , 456 
GRID, 17, , 160.6144, 0.0, 3.142, , 456 
GRID, 18, , 154.6548, 0.0, 3.2288, , 456 
GRID, 19, , 148.6951, 0.0, 3.3103, , 456 
GRID, 20, , 142.7353, 0.0, 3.3862, , 456 
$ ... 11319 like lines cut
$*
$* Constraints and loads
$* SPCs
$*
SPC1, 100, 123456, 1
SPC1, 100, 123456, 11339
SPC1, 100, 123456, 2
SPC1, 100, 123456, 11338
SPC1, 100, 123456, 3
SPC1, 100, 123456, 11337
SPC1, 100, 123456, 4
SPC1, 100, 123456, 11336
SPC1, 100, 123456, 5
SPC1, 100, 123456, 11335
SPC1, 100, 123456, 6
SPC1, 100, 123456, 11334
SPC1, 100, 123456, 7
SPC1, 100, 123456, 11333
SPC1, 100, 123456, 8
SPC1, 100, 123456, 11332
SPC1, 100, 123456, 9
SPC1, 100, 123456, 11331
SPC1, 100, 123456, 10
SPC1, 100, 123456, 11330
$ ... 818 like lines cut
$*
$*
ENDDATA