$*$$$$$$$$$$$$$$$$$$$$$$$$$$$$$$$$$$$$$$$$$$$$$$$$$$$$$$$$$$$$$$$$$
$*
$*                    Aeroelasticity approximation of hydrodynamic damping
$*                    for Simcenter Nastran version 2020.2
$*
$*
$*
$*        ANALYSIS TYPE: Vibro-Acoustic
$*        SOLUTION NAME: Solution 1
$*        SOLUTION TYPE: SOL 107 Complex Eigenvalues
$*
$*
$*                UNITS: mm (milli-newton)
$*                      ... LENGTH : mm
$*                      ... TIME   : sec
$*                      ... MASS   : kilogram (kg)
$*                      ... TEMPERATURE : deg Celsius
$*                      ... FORCE  : milli-newton
$*                      ... THERMAL ENERGY : mN-mm (micro-joule)
$*
$*
$*$$$$$$$$$$$$$$$$$$$$$$$$$$$$$$$$$$$$$$$$$$$$$$$$$$$$$$$$$$$$$$$$$
$*
$*$$$$$$$$$$$$$$$$$$$$$$$$$$$$$$$$$$$
$*
$* FILE MANAGEMENT
$*
$*$$$$$$$$$$$$$$$$$$$$$$$$$$$$$$$$$$$
$*
$*
$*$$$$$$$$$$$$$$$$$$$$$$$$$$$$$$$$$$$
$*
$* EXECUTIVE CONTROL
$*
$*$$$$$$$$$$$$$$$$$$$$$$$$$$$$$$$$$$$
$*
ID, Acoustics analysis, no added damping, coupled fluid-structure
SOL 107
CEND
$*
$*$$$$$$$$$$$$$$$$$$$$$$$$$$$$$$$$$$$
$*
$* CASE CONTROL
$*
$*$$$$$$$$$$$$$$$$$$$$$$$$$$$$$$$$$$$
$*
ECHO = NONE
SPC = 100
MODSEL = ALL
MODSEL(FLUID) = ALL
FLSTCNT ACSYM=NO ACOUT=PEAK ASCOUP=YES PREFDB=0.0 SKINOUT=FREEFACE ,
AGGPCH=YES SFEF70=NO
METHOD(STRUCTURE) = 101
METHOD(FLUID) = 101
CMETHOD = 102
OUTPUT
ACVELOCITY(PRINT,REAL) = ALL
BCRESULTS(TRACTION,FORCE,PLOT) = ALL
DISPLACEMENT(PLOT,REAL) = ALL
EDE(PLOT,AVERAGE,RMAG) = ALL
FORCE(PLOT,REAL,CENTER) = ALL
MEFFMASS(PRINT,SUMMARY) = YES
PRESSURE(PLOT,REAL,TOTAL) = ALL
SPCFORCES(PLOT,REAL) = ALL
STRESS(PLOT,REAL,VONMISES,CENTER) = ALL
$*  Step: Subcase - Eigenvalue Method 1
SUBCASE 1
  LABEL = Subcase - Eigenvalue Method 1
  METHOD(STRUCTURE) = 101
  METHOD(FLUID) = 101
  SPC = 100
  OUTPUT
  ACVELOCITY(PRINT,REAL) = ALL
  BCRESULTS(TRACTION,FORCE,PLOT) = ALL
  DISPLACEMENT(PLOT,REAL) = ALL
  EDE(PLOT,AVERAGE,RMAG) = ALL
  FORCE(PLOT,REAL,CENTER) = ALL
  MEFFMASS(PRINT,SUMMARY) = YES
  PRESSURE(PLOT,REAL,TOTAL) = ALL
  SPCFORCES(PLOT,REAL) = ALL
  STRESS(PLOT,REAL,VONMISES,CENTER) = ALL
$*
$*$$$$$$$$$$$$$$$$$$$$$$$$$$$$$$$$$$$
$*
$* BULK DATA
$*
$*$$$$$$$$$$$$$$$$$$$$$$$$$$$$$$$$$$$
$*
BEGIN BULK
$*
$* SOLUTION CARDS
$*
TABDMP1      300       G                                                +
+         0.00000.0000001.000+100.020000    ENDT
$ EIGEN METHODS
$*  Modeling Object: Real Eigenvalue - Lanczos
EIGRL, 101, 10.0000, 10.0E3, 50, 0, 7, , MASS
$* Modeling Object: Complex Eigenvalue - Lanczos
EIGC,102, CLAN, , , , , 50
$
$* PARAM CARDS
$*
PARAM      K6ROT100.0000
PARAM     OIBULK     YES
PARAM    OMACHPR     YES
PARAM       POST      -2
PARAM    POSTEXT     YES
PARAM    UNITSYS   MN-MM
$*
$* Materials and properties
$*
$* Material used
MAT1, 1, 115000000.0, , 0.33, 7.8e-06
$* Solid property
PSOLID, 1, 1
$*
$* Fluid used
MAT10, 2, 2210000.0, 9.97e-07
$* Fluid property
PSOLID, 2, 2, , , , , PFLUID, 
$* Elements
$* Element CARDS: Pentahedrons
$*
CPENTA, 1, 1, 33, 66, 3, 206, 239, 176
, 77, 78, 79, 164, 165, 134, 250, 251
, 252
CPENTA, 2, 1, 24, 12, 69, 197, 185, 242
, 80, 81, 82, 155, 143, 166, 253, 254
, 255
CPENTA, 3, 1, 12, 24, 70, 185, 197, 243
, 80, 83, 84, 143, 155, 167, 253, 256
, 257
CPENTA, 4, 1, 13, 23, 69, 186, 196, 242
, 85, 86, 87, 144, 154, 166, 258, 259
, 260
CPENTA, 5, 1, 23, 13, 71, 196, 186, 244
, 85, 88, 89, 154, 144, 168, 258, 261
, 262
CPENTA, 6, 1, 25, 11, 70, 198, 184, 243
, 90, 91, 92, 156, 142, 167, 263, 264
, 265
CPENTA, 7, 1, 11, 25, 72, 184, 198, 245
, 90, 93, 94, 142, 156, 169, 263, 266
, 267
CPENTA, 8, 1, 14, 22, 71, 187, 195, 244
, 95, 96, 97, 145, 153, 168, 268, 269
, 270
CPENTA, 9, 1, 26, 10, 72, 199, 183, 245
, 98, 99, 100, 157, 141, 169, 271, 272
, 273
CPENTA, 10, 1, 22, 14, 73, 195, 187, 246
, 95, 101, 102, 153, 145, 170, 268, 274
, 275
CPENTA, 11, 1, 10, 26, 74, 183, 199, 247
, 98, 103, 104, 141, 157, 171, 271, 276
, 277
CPENTA, 12, 1, 27, 9, 74, 200, 182, 247
, 105, 106, 107, 158, 140, 171, 278, 279
, 280
CPENTA, 13, 1, 15, 21, 73, 188, 194, 246
, 108, 109, 110, 146, 152, 170, 281, 282
, 283
CPENTA, 14, 1, 9, 27, 75, 182, 200, 248
, 105, 111, 112, 140, 158, 172, 278, 284
, 285
CPENTA, 15, 1, 21, 15, 76, 194, 188, 249
, 108, 113, 114, 152, 146, 173, 281, 286
, 287
CPENTA, 16, 1, 28, 8, 75, 201, 181, 248
, 115, 116, 117, 159, 139, 172, 288, 289
, 290
CPENTA, 17, 1, 16, 20, 76, 189, 193, 249
, 118, 119, 120, 147, 151, 173, 291, 292
, 293
CPENTA, 18, 1, 8, 9, 75, 181, 182, 248
, 40, 112, 116, 139, 140, 172, 213, 285
, 289
CPENTA, 19, 1, 9, 10, 74, 182, 183, 247
, 41, 104, 106, 140, 141, 171, 214, 277
, 279
CPENTA, 20, 1, 10, 11, 72, 183, 184, 245
, 42, 94, 99, 141, 142, 169, 215, 267
, 272
$ ... 2820 like lines cut
$*
$* Fluid Element CARDS: Pentahedrons
$*
CPENTA, 961, 2, 3726, 3777, 3780, 4616, 4667, 4670
, 3848, 3849, 3850, 4360, 4411, 4414, 4738, 4739
, 4740
CPENTA, 962, 2, 3777, 3726, 3781, 4667, 4616, 4671
, 3848, 3851, 3852, 4411, 4360, 4415, 4738, 4741
, 4742
CPENTA, 963, 2, 3816, 3797, 3829, 4706, 4687, 4719
, 3853, 3854, 3855, 4450, 4431, 4463, 4743, 4744
, 4745
CPENTA, 964, 2, 3696, 3697, 3780, 4586, 4587, 4670
, 3716, 3856, 3857, 4351, 4352, 4414, 4606, 4746
, 4747
CPENTA, 965, 2, 3592, 3682, 3749, 4482, 4572, 4639
, 3701, 3858, 3859, 4291, 4337, 4383, 4591, 4748
, 4749
CPENTA, 966, 2, 3797, 3741, 3829, 4687, 4631, 4719
, 3860, 3861, 3854, 4431, 4375, 4463, 4750, 4751
, 4744
CPENTA, 967, 2, 3758, 3744, 3833, 4648, 4634, 4723
, 3862, 3863, 3864, 4392, 4378, 4467, 4752, 4753
, 4754
CPENTA, 968, 2, 3773, 3728, 3775, 4663, 4618, 4665
, 3865, 3866, 3867, 4407, 4362, 4409, 4755, 4756
, 4757
CPENTA, 969, 2, 3788, 3758, 3833, 4678, 4648, 4723
, 3868, 3864, 3869, 4422, 4392, 4467, 4758, 4754
, 4759
CPENTA, 970, 2, 3755, 3643, 3835, 4645, 4533, 4725
, 3870, 3871, 3872, 4389, 4320, 4469, 4760, 4761
, 4762
CPENTA, 971, 2, 3683, 3684, 3782, 4573, 4574, 4672
, 3703, 3873, 3874, 4338, 4339, 4416, 4593, 4763
, 4764
CPENTA, 972, 2, 3733, 3756, 3795, 4623, 4646, 4685
, 3875, 3876, 3877, 4367, 4390, 4429, 4765, 4766
, 4767
CPENTA, 973, 2, 3760, 3759, 3801, 4650, 4649, 4691
, 3878, 3879, 3880, 4394, 4393, 4435, 4768, 4769
, 4770
CPENTA, 974, 2, 3643, 3755, 3789, 4533, 4645, 4679
, 3870, 3881, 3882, 4320, 4389, 4423, 4760, 4771
, 4772
CPENTA, 975, 2, 3697, 3726, 3780, 4587, 4616, 4670
, 3883, 3850, 3856, 4352, 4360, 4414, 4773, 4740
, 4746
CPENTA, 976, 2, 3728, 3696, 3780, 4618, 4586, 4670
, 3884, 3857, 3885, 4362, 4351, 4414, 4774, 4747
, 4775
CPENTA, 977, 2, 3744, 3700, 3833, 4634, 4590, 4723
, 3886, 3887, 3863, 4378, 4355, 4467, 4776, 4777
, 4753
CPENTA, 978, 2, 3804, 3767, 3829, 4694, 4657, 4719
, 3888, 3889, 3890, 4438, 4401, 4463, 4778, 4779
, 4780
CPENTA, 979, 2, 3644, 3788, 3817, 4534, 4678, 4707
, 3891, 3892, 3893, 4321, 4422, 4451, 4781, 4782
, 4783
CPENTA, 980, 2, 3775, 3728, 3780, 4665, 4618, 4670
, 3866, 3885, 3894, 4409, 4362, 4414, 4756, 4775
, 4784
$ ... 18960 like lines cut
$*
$* GRID CARDS
$*
GRID, 1, , 95.0, 0.0, 0.5152, , 456 
GRID, 2, , 95.0, 0.0, -0.5152, , 456 
GRID, 3, , 89.0563, 0.0, 0.6558, , 456 
GRID, 4, , 83.1124, 0.0, 0.7875, , 456 
GRID, 5, , 77.1683, 0.0, 0.9105, , 456 
GRID, 6, , 71.2241, 0.0, 1.024, , 456 
GRID, 7, , 65.2796, 0.0, 1.1273, , 456 
GRID, 8, , 59.335, 0.0, 1.2189, , 456 
GRID, 9, , 53.3902, 0.0, 1.2971, , 456 
GRID, 10, , 47.4451, 0.0, 1.3596, , 456 
GRID, 11, , 41.4999, 0.0, 1.4033, , 456 
GRID, 12, , 35.5546, 0.0, 1.4243, , 456 
GRID, 13, , 29.6093, 0.0, 1.4172, , 456 
GRID, 14, , 23.6641, 0.0, 1.3746, , 456 
GRID, 15, , 17.7195, 0.0, 1.2851, , 456 
GRID, 16, , 11.7762, 0.0, 1.1284, , 456 
GRID, 17, , 5.8373, 0.0, 0.8562, , 456 
GRID, 18, , 0.0, 0.0, -0.0, , 456 
GRID, 19, , 5.8373, 0.0, -0.8562, , 456 
GRID, 20, , 11.7762, 0.0, -1.1284, , 456 
$ ... 3571 like lines cut
$*
$* GRID CARDS
$*
GRID, 3592, , 95.0, 0.0, 0.5152,-1
GRID, 3593, , 95.0, 0.0, -0.5152,-1
GRID, 3594, , 106.875, 0.0, -50.0,-1
GRID, 3595, , 106.875, 0.0, 50.0,-1
GRID, 3596, , -11.875, 0.0, 50.0,-1
GRID, 3597, , -11.875, 0.0, -50.0,-1
GRID, 3598, , -11.875, 0.0, -40.0,-1
GRID, 3599, , -11.875, 0.0, -30.0,-1
GRID, 3600, , -11.875, 0.0, -20.0,-1
GRID, 3601, , -11.875, 0.0, -10.0,-1
GRID, 3602, , -11.875, 0.0, -0.0,-1
GRID, 3603, , -11.875, 0.0, 10.0,-1
GRID, 3604, , -11.875, 0.0, 20.0,-1
GRID, 3605, , -11.875, 0.0, 30.0,-1
GRID, 3606, , -11.875, 0.0, 40.0,-1
GRID, 3607, , -11.875, 0.0, -45.0,-1
GRID, 3608, , -11.875, 0.0, -35.0,-1
GRID, 3609, , -11.875, 0.0, -25.0,-1
GRID, 3610, , -11.875, 0.0, -15.0,-1
GRID, 3611, , -11.875, 0.0, -5.0,-1
$ ... 18479 like lines cut
$*
$* Constraints and loads
$* SPCs
$*
SPC1, 100, 123456, 1
SPC1, 100, 123456, 3591
SPC1, 100, 123456, 2
SPC1, 100, 123456, 3590
SPC1, 100, 123456, 3
SPC1, 100, 123456, 3589
SPC1, 100, 123456, 4
SPC1, 100, 123456, 3588
SPC1, 100, 123456, 5
SPC1, 100, 123456, 3587
SPC1, 100, 123456, 6
SPC1, 100, 123456, 3586
SPC1, 100, 123456, 7
SPC1, 100, 123456, 3585
SPC1, 100, 123456, 8
SPC1, 100, 123456, 3584
SPC1, 100, 123456, 9
SPC1, 100, 123456, 3583
SPC1, 100, 123456, 10
SPC1, 100, 123456, 3582
$ ... 242 like lines cut
$*
ACMODL, , , , , 1.0, , , REL,
, 0.5, 0, , , STRONG
$*
$*
ENDDATA