
    $*$$$$$$$$$$$$$$$$$$$$$$$$$$$$$$$$$$$$$$$$$$$$$$$$$$$$$$$$$$$$$$$$$
$*
$*                    Aeroelasticity approximation of hydrodynamic damping
$*                    for Simcenter Nastran version 2020.2
$*
$*        ANALYSIS TYPE: Structural
$*        SOLUTION NAME: Modes
$*        SOLUTION TYPE: SOL 103 Real Eigenvalues
$*
$*                UNITS: mm (milli-newton)
$*                      ... LENGTH : mm
$*                      ... TIME   : sec
$*                      ... MASS   : kilogram (kg)
$*                      ... TEMPERATURE : deg Celsius
$*                      ... FORCE  : milli-newton
$*                      ... THERMAL ENERGY : mN-mm (micro-joule)
$*
$*$$$$$$$$$$$$$$$$$$$$$$$$$$$$$$$$$$$$$$$$$$$$$$$$$$$$$$$$$$$$$$$$$
$*
$*$$$$$$$$$$$$$$$$$$$$$$$$$$$$$$$$$$$
$*
$* FILE MANAGEMENT
$*
$*$$$$$$$$$$$$$$$$$$$$$$$$$$$$$$$$$$$
$*
$*
$*$$$$$$$$$$$$$$$$$$$$$$$$$$$$$$$$$$$
$*
$* EXECUTIVE CONTROL
$*
$*$$$$$$$$$$$$$$$$$$$$$$$$$$$$$$$$$$$
$*
ID, modal analysis
SOL 103
CEND
$*
$*$$$$$$$$$$$$$$$$$$$$$$$$$$$$$$$$$$$
$*
$* CASE CONTROL
$*
$*$$$$$$$$$$$$$$$$$$$$$$$$$$$$$$$$$$$
$*
ECHO = NONE
SPC = 100
METHOD = 101
OUTPUT
AEROF = ALL
APRESSURE = ALL
DISPLACEMENT(PLOT,REAL) = ALL
EDE(PLOT,AVERAGE,RMAG) = ALL
FORCE(PLOT,REAL,CENTER) = ALL
SPCFORCES(PLOT,REAL) = ALL
STRESS(PLOT,REAL,VONMISES,CENTER) = ALL
$*  Step: Subcase - Static Loads 1
SUBCASE 1
  LABEL = Subcase - Eigenvalue Method 1
  METHOD = 101
  OUTPUT
  AEROF = ALL
  APRESSURE = ALL
  DISPLACEMENT(PLOT,REAL) = ALL
  EDE(PLOT,AVERAGE,RMAG) = ALL
  FORCE(PLOT,REAL,CENTER) = ALL
  SPCFORCES(PLOT,REAL) = ALL
  STRESS(PLOT,REAL,VONMISES,CENTER) = ALL
$*
$*$$$$$$$$$$$$$$$$$$$$$$$$$$$$$$$$$$$
$*
$* BULK DATA
$*
$*$$$$$$$$$$$$$$$$$$$$$$$$$$$$$$$$$$$
$*
BEGIN BULK
$*
$* SOLUTION CARDS
$*
$*  Modeling Object: Real Eigenvalue - Lanczos1
EIGRL, 101, 10.0000, 30.0E3, 50, 0, 7, , MASS
$* PARAM CARDS
$*
PARAM      K6ROT100.0000
PARAM     OIBULK     YES
PARAM    OMACHPR     YES
PARAM       POST      -2
PARAM    POSTEXT     YES
PARAM    UNITSYS   MN-MM
$*
$* Materials and properties
$*
$* Material used
MAT1, 1, 68890000.0, , 0.33, 2.711e-06
$* Solid property
PSOLID, 1, 1
$*
$* Elements
$* Element CARDS: Pentahedrons
$*
CPENTA, 1, 1, 101, 5, 6, 924, 828, 829
, 291, 107, 292, 738, 642, 643, 1114, 930
, 1115
CPENTA, 2, 1, 101, 102, 5, 924, 925, 828
, 203, 293, 291, 738, 739, 642, 1026, 1116
, 1114
CPENTA, 3, 1, 210, 71, 251, 1033, 894, 1074
, 294, 295, 296, 743, 708, 784, 1117, 1118
, 1119
CPENTA, 4, 1, 90, 91, 249, 913, 914, 1072
, 192, 297, 298, 727, 728, 782, 1015, 1120
, 1121
CPENTA, 5, 1, 102, 4, 5, 925, 827, 828
, 299, 106, 293, 739, 641, 642, 1122, 929
, 1116
CPENTA, 6, 1, 221, 77, 257, 1044, 900, 1080
, 300, 301, 302, 754, 714, 790, 1123, 1124
, 1125
CPENTA, 7, 1, 240, 30, 254, 1063, 853, 1077
, 303, 304, 305, 773, 667, 787, 1126, 1127
, 1128
CPENTA, 8, 1, 102, 103, 4, 925, 926, 827
, 204, 306, 299, 739, 740, 641, 1027, 1129
, 1122
CPENTA, 9, 1, 242, 210, 251, 1065, 1033, 1074
, 307, 296, 308, 775, 743, 784, 1130, 1119
, 1131
CPENTA, 10, 1, 53, 227, 283, 876, 1050, 1106
, 309, 310, 311, 690, 760, 816, 1132, 1133
, 1134
CPENTA, 11, 1, 52, 53, 283, 875, 876, 1106
, 154, 311, 312, 689, 690, 816, 977, 1134
, 1135
CPENTA, 12, 1, 103, 3, 4, 926, 826, 827
, 313, 105, 306, 740, 640, 641, 1136, 928
, 1129
CPENTA, 13, 1, 91, 231, 249, 914, 1054, 1072
, 314, 315, 297, 728, 764, 782, 1137, 1138
, 1120
CPENTA, 14, 1, 252, 232, 256, 1075, 1055, 1079
, 316, 317, 318, 785, 765, 789, 1139, 1140
, 1141
CPENTA, 15, 1, 210, 252, 256, 1033, 1075, 1079
, 319, 318, 320, 743, 785, 789, 1142, 1141
, 1143
CPENTA, 16, 1, 240, 221, 257, 1063, 1044, 1080
, 321, 302, 322, 773, 754, 790, 1144, 1125
, 1145
CPENTA, 17, 1, 221, 240, 254, 1044, 1063, 1077
, 321, 305, 323, 754, 773, 787, 1144, 1128
, 1146
CPENTA, 18, 1, 271, 233, 272, 1094, 1056, 1095
, 324, 325, 326, 804, 766, 805, 1147, 1148
, 1149
CPENTA, 19, 1, 215, 271, 272, 1038, 1094, 1095
, 327, 326, 328, 748, 804, 805, 1150, 1149
, 1151
CPENTA, 20, 1, 212, 258, 267, 1035, 1081, 1090
, 329, 330, 331, 745, 791, 800, 1152, 1153
, 1154
$ ... 15900 like lines cut
$*
$* GRID CARDS
$*
GRID, 1, , 250.0, 0.0, -2.25, , 456 
GRID, 2, , 247.5826, 0.0, -2.2, , 456 
GRID, 3, , 246.4664, 0.0, 1.1475, , 456 
GRID, 4, , 241.7607, 0.0, 2.598, , 456 
GRID, 5, , 236.8032, 0.0, 2.8092, , 456 
GRID, 6, , 231.8401, 0.0, 2.8376, , 456 
GRID, 7, , 226.8794, 0.0, 3.0103, , 456 
GRID, 8, , 221.917, 0.0, 3.1246, , 456 
GRID, 9, , 216.9641, 0.0, 3.4408, , 456 
GRID, 10, , 212.0174, 0.0, 3.8511, , 456 
GRID, 11, , 207.0638, 0.0, 4.164, , 456 
GRID, 12, , 202.1011, 0.0, 4.2042, , 456 
GRID, 13, , 197.1378, 0.0, 4.2413, , 456 
GRID, 14, , 192.1764, 0.0, 4.3921, , 456 
GRID, 15, , 187.2216, 0.0, 4.686, , 456 
GRID, 16, , 182.2617, 0.0, 4.8704, , 456 
GRID, 17, , 177.2988, 0.0, 4.9601, , 456 
GRID, 18, , 172.3383, 0.0, 5.1364, , 456 
GRID, 19, , 167.3798, 0.0, 5.364, , 456 
GRID, 20, , 162.4224, 0.0, 5.6137, , 456 
$ ... 17077 like lines cut
$*
$* Constraints and loads
$* SPCs
$*
SPC1, 100, 123456, 1
SPC1, 100, 123456, 17097
SPC1, 100, 123456, 2
SPC1, 100, 123456, 17096
SPC1, 100, 123456, 3
SPC1, 100, 123456, 17095
SPC1, 100, 123456, 4
SPC1, 100, 123456, 17094
SPC1, 100, 123456, 5
SPC1, 100, 123456, 17093
SPC1, 100, 123456, 6
SPC1, 100, 123456, 17092
SPC1, 100, 123456, 7
SPC1, 100, 123456, 17091
SPC1, 100, 123456, 8
SPC1, 100, 123456, 17090
SPC1, 100, 123456, 9
SPC1, 100, 123456, 17089
SPC1, 100, 123456, 10
SPC1, 100, 123456, 17088
$ ... 1254 like lines cut
$*
$*
ENDDATA