$*$$$$$$$$$$$$$$$$$$$$$$$$$$$$$$$$$$$$$$$$$$$$$$$$$$$$$$$$$$$$$$$$$
$*
$*                    Aeroelasticity approximation of hydrodynamic damping
$*                    for Simcenter Nastran version 2020.2
$*
$*        ANALYSIS TYPE: Structural
$*        SOLUTION NAME: Flutter
$*        SOLUTION TYPE: SOL 145 Aeroelastic Flutter
$*
$*                UNITS: mm (milli-newton)
$*                      ... LENGTH : mm
$*                      ... TIME   : sec
$*                      ... MASS   : kilogram (kg)
$*                      ... TEMPERATURE : deg Celsius
$*                      ... FORCE  : milli-newton
$*                      ... THERMAL ENERGY : mN-mm (micro-joule)
$*
$*$$$$$$$$$$$$$$$$$$$$$$$$$$$$$$$$$$$$$$$$$$$$$$$$$$$$$$$$$$$$$$$$$
$*
$*$$$$$$$$$$$$$$$$$$$$$$$$$$$$$$$$$$$
$*
$* FILE MANAGEMENT
$*
$*$$$$$$$$$$$$$$$$$$$$$$$$$$$$$$$$$$$
$*
$*
$*$$$$$$$$$$$$$$$$$$$$$$$$$$$$$$$$$$$
$*
$* EXECUTIVE CONTROL
$*
$*$$$$$$$$$$$$$$$$$$$$$$$$$$$$$$$$$$$
$*
ID, Aeroelastic analysis, added mass
SOL 145
COMPILE FLUTTER NOLIST NOREF $
$MALTER '$ COUNTER FOR NUMBER OF M/K PAIRS' $
ALTER 1 $
MATGEN ,/PPP1/1/1 $
ADD PPP1,/PP1/3.8635546334646196 $
MATGEN ,/PPP2/1/1 $
ADD PPP2,/PP2/3.0876222009410146 $
MATGEN ,/ZERO1/7/1/1/0 $
TRNSP ZERO1/ZEROT1 $
MATGEN ,/CP1/6/2/1/1 $
MERGE PP1,ZEROT1,ZERO1,PP2,CP1,/A1 $
MATGEN ,/PPP3/1/1 $
ADD PPP3,/PP3/2.1956584345933505 $
MATGEN ,/ZERO2/7/2/1/0 $
TRNSP ZERO2/ZEROT2 $
MATGEN ,/CP2/6/3/2/1 $
MERGE A1,ZEROT2,ZERO2,PP3,CP2,/A2 $
MATGEN ,/PPP4/1/1 $
ADD PPP4,/PP4/2.3258603364043196 $
MATGEN ,/ZERO3/7/3/1/0 $
TRNSP ZERO3/ZEROT3 $
MATGEN ,/CP3/6/4/3/1 $
MERGE A2,ZEROT3,ZERO3,PP4,CP3,/A3 $
MATGEN ,/PPP5/1/1 $
ADD PPP5,/PP5/1.972388648838152 $
MATGEN ,/ZERO4/7/4/1/0 $
TRNSP ZERO4/ZEROT4 $
MATGEN ,/CP4/6/5/4/1 $
MERGE A3,ZEROT4,ZERO4,PP5,CP4,/A4 $
MATGEN ,/PPP6/1/1 $
ADD PPP6,/PP6/1.8191289439672171 $
MATGEN ,/ZERO5/7/5/1/0 $
TRNSP ZERO5/ZEROT5 $
MATGEN ,/CP5/6/6/5/1 $
MERGE A4,ZEROT5,ZERO5,PP6,CP5,/A5 $
MATGEN ,/PPP7/1/1 $
ADD PPP7,/PP7/2.229263236703845 $
MATGEN ,/ZERO6/7/6/1/0 $
TRNSP ZERO6/ZEROT6 $
MATGEN ,/CP6/6/7/6/1 $
MERGE A5,ZEROT6,ZERO6,PP7,CP6,/A6 $
MATGEN ,/PPP8/1/1 $
ADD PPP8,/PP8/1.9695659134628787 $
MATGEN ,/ZERO7/7/7/1/0 $
TRNSP ZERO7/ZEROT7 $
MATGEN ,/CP7/6/8/7/1 $
MERGE A6,ZEROT7,ZERO7,PP8,CP7,/A7 $
MATGEN ,/PPP9/1/1 $
ADD PPP9,/PP9/2.0357992573320587 $
MATGEN ,/ZERO8/7/8/1/0 $
TRNSP ZERO8/ZEROT8 $
MATGEN ,/CP8/6/9/8/1 $
MERGE A7,ZEROT8,ZERO8,PP9,CP8,/A8 $
MATGEN ,/PPP10/1/1 $
ADD PPP10,/PP10/2.220680802743418 $
MATGEN ,/ZERO9/7/9/1/0 $
TRNSP ZERO9/ZEROT9 $
MATGEN ,/CP9/6/10/9/1 $
MERGE A8,ZEROT9,ZERO9,PP10,CP9,/A9 $
EQUIVX A9/BETAMAT/ALWAYS $
$Mass matrix scaling
MPYAD MHH,BETAMAT,/MHHX $
MPYAD MHHX,BETAMAT,/MHHNEW $
EQUIVX MHHNEW/MHH/ALWAYS $
$Damping matrix scaling
MPYAD BHH,BETAMAT,/BHHX $
EQUIVX BHHX/BHH/ALWAYS $
ENDALTER
CEND
$*
$*$$$$$$$$$$$$$$$$$$$$$$$$$$$$$$$$$$$
$*
$* CASE CONTROL
$*
$*$$$$$$$$$$$$$$$$$$$$$$$$$$$$$$$$$$$
$*
ECHO = NONE
SPC = 100
METHOD = 101
FMETHOD = 200
CMETHOD = 102
OUTPUT
AEROF = ALL
APRESSURE = ALL
DISPLACEMENT(PLOT,REAL) = ALL
EDE(PLOT,AVERAGE,RMAG) = ALL
FORCE(PLOT,REAL,CENTER) = ALL
SPCFORCES(PLOT,REAL) = ALL
STRESS(PLOT,REAL,VONMISES,CENTER) = ALL
$*  Step: Subcase - Eigenvalue Method 1
SUBCASE 1
  LABEL = Subcase - Eigenvalue Method 1
  METHOD = 101
  CMETHOD = 102
$*
$*$$$$$$$$$$$$$$$$$$$$$$$$$$$$$$$$$$$
$*
$* BULK DATA
$*
$*$$$$$$$$$$$$$$$$$$$$$$$$$$$$$$$$$$$
$*
BEGIN BULK
$*
$* SOLUTION CARDS
$*
$*  Modeling Object: Real Eigenvalue - Lanczos1
EIGRL, 101, 10.0000, , 10, 0, 7, , MASS
$* Modeling Object: Complex Eigenvalue - Lanczos
EIGC,102, CLAN, , , , , 10
$*
$* PARAM CARDS
$*
PARAM      K6ROT100.0000
PARAM     OIBULK     YES
PARAM    OMACHPR     YES
PARAM       POST      -2
PARAM    POSTEXT     YES
PARAM    UNITSYS   MN-MM
PARAM    BAILOUT      -1
PARAM, AUTOSPC, NO
$PARAM, EXTOUT, DMIGPCH
$*
$* Materials and properties
$*
$* Material used
MAT1, 1, 68890000.0, , 0.33, 2.711e-06
$* Solid property
PSOLID, 1, 1
$* Aerodynamic panels properties
PAERO1, 2
$*
$* Elements
$* Element CARDS: Pentahedrons
$*
CPENTA, 1, 1, 18, 87, 17, 662, 731, 661
, 254, 255, 118, 512, 581, 511, 898, 899
, 762
CPENTA, 2, 1, 87, 88, 17, 731, 732, 661
, 188, 256, 255, 581, 582, 511, 832, 900
, 899
CPENTA, 3, 1, 88, 89, 16, 732, 733, 660
, 189, 257, 258, 582, 583, 510, 833, 901
, 902
CPENTA, 4, 1, 17, 88, 16, 661, 732, 660
, 256, 258, 117, 511, 582, 510, 900, 902
, 761
CPENTA, 5, 1, 7, 8, 229, 651, 652, 873
, 108, 259, 260, 501, 502, 620, 752, 903
, 904
CPENTA, 6, 1, 53, 54, 209, 697, 698, 853
, 154, 261, 262, 547, 548, 600, 798, 905
, 906
CPENTA, 7, 1, 96, 97, 231, 740, 741, 875
, 197, 263, 264, 590, 591, 622, 841, 907
, 908
CPENTA, 8, 1, 8, 9, 231, 652, 653, 875
, 109, 265, 266, 502, 503, 622, 753, 909
, 910
CPENTA, 9, 1, 95, 96, 236, 739, 740, 880
, 196, 267, 268, 589, 590, 627, 840, 911
, 912
CPENTA, 10, 1, 9, 10, 236, 653, 654, 880
, 110, 269, 270, 503, 504, 627, 754, 913
, 914
CPENTA, 11, 1, 94, 95, 240, 738, 739, 884
, 195, 271, 272, 588, 589, 631, 839, 915
, 916
CPENTA, 12, 1, 10, 11, 240, 654, 655, 884
, 111, 273, 274, 504, 505, 631, 755, 917
, 918
CPENTA, 13, 1, 93, 94, 242, 737, 738, 886
, 194, 275, 276, 587, 588, 633, 838, 919
, 920
CPENTA, 14, 1, 11, 12, 242, 655, 656, 886
, 112, 277, 278, 505, 506, 633, 756, 921
, 922
CPENTA, 15, 1, 12, 13, 246, 656, 657, 890
, 113, 279, 280, 506, 507, 637, 757, 923
, 924
CPENTA, 16, 1, 91, 92, 247, 735, 736, 891
, 192, 281, 282, 585, 586, 638, 836, 925
, 926
CPENTA, 17, 1, 92, 93, 246, 736, 737, 890
, 193, 283, 284, 586, 587, 637, 837, 927
, 928
CPENTA, 18, 1, 102, 3, 207, 746, 647, 851
, 285, 286, 287, 596, 497, 598, 929, 930
, 931
CPENTA, 19, 1, 4, 101, 207, 648, 745, 851
, 288, 289, 290, 498, 595, 598, 932, 933
, 934
CPENTA, 20, 1, 13, 14, 247, 657, 658, 891
, 114, 291, 292, 507, 508, 638, 758, 935
, 936
$ ... 11640 like lines cut
$*
$* Materials and properties for simulated nodes
$*
$* Material used
MAT1, 3, 1.0, , 0.3, 1.0
$* Solid property
PSOLID, 3, 3
$* GRID CARDS
$*
GRID, 1, , 249.8221, 0.0, 0.174, , 456 
GRID, 2, , 250.0, 0.0, -0.175, , 456 
GRID, 3, , 244.9703, 0.0, 1.1197, , 456 
GRID, 4, , 240.0409, 0.0, 1.6459, , 456 
GRID, 5, , 235.0799, 0.0, 1.7925, , 456 
GRID, 6, , 230.1177, 0.0, 1.8912, , 456 
GRID, 7, , 225.1549, 0.0, 1.9188, , 456 
GRID, 8, , 220.1933, 0.0, 2.0346, , 456 
GRID, 9, , 215.2302, 0.0, 2.0373, , 456 
GRID, 10, , 210.2684, 0.0, 2.1517, , 456 
GRID, 11, , 205.3069, 0.0, 2.2684, , 456 
GRID, 12, , 200.3438, 0.0, 2.2607, , 456 
GRID, 13, , 195.3806, 0.0, 2.2531, , 456 
GRID, 14, , 190.4191, 0.0, 2.3646, , 456 
GRID, 15, , 185.4601, 0.0, 2.5691, , 456 
GRID, 16, , 180.4984, 0.0, 2.6837, , 456 
GRID, 17, , 175.5355, 0.0, 2.7329, , 456 
GRID, 18, , 170.5723, 0.0, 2.724, , 456 
GRID, 19, , 165.6092, 0.0, 2.7286, , 456 
GRID, 20, , 160.6475, 0.0, 2.8444, , 456 
$ ... 13354 like lines cut
$*
$* Element CARDS: Aero panels
CAERO1, 3901, 2, , 16, , , 1, 1,
, 0.0, 0.0, 0.0, 250.0, 0.0, 150.0, 0.0, 250.0
AEFACT, 1, 0.0, 0.0096, 0.0381, 0.0843, 0.1464, 0.2222, 0.3087, 
, 0.4025, 0.5, 0.5975, 0.6913, 0.7778, 0.8536, 0.9157, 0.9619, 
, 0.9904, 1.0, 
$*
$ SPLINE OBJECTS
SPLINE1, 2, 3901, 3901, 4156, 1, 0.1, IPS, BOTH
SET1, 1, 1, 3, 5, 7, 9, 11, 13, 
, 15, 17, 19, 21, 23, 25, 27, 29, 
, 31, 33, 35, 37, 39, 41, 43, 45, 
, 47, 49, 51, 53, 55, 57, 59, 61, 
, 63, 65, 67, 69, 71, 73, 75, 77, 
, 79, 81, 83, 85, 87, 89, 91, 93, 
, 95, 97, 99, 101, 103, 105, 107, 109, 
, 111, 113, 115, 117, 119, 121, 123, 125, 
, 127, 129, 131, 133, 135, 137, 139, 141, 
, 143, 145, 147, 149, 151, 153, 155, 157, 
, 159, 161, 163, 165, 167, 169, 171, 173, 
, 175, 177, 179, 181, 183, 185, 187, 189, 
, 191, 193, 195, 197, 199, 201, 203, 205, 
, 207, 209, 211, 213, 215, 217, 219, 221, 
, 223, 225, 227, 229, 231, 233, 235, 237, 
, 239, 241, 243, 245, 247, 249, 251, 253, 
, 255, 257, 259, 261, 263, 265, 267, 269, 
, 271, 273, 275, 277, 279, 281, 283, 285, 
, 287, 289, 291, 293, 295, 297, 299, 301, 
, 303, 305, 307, 309, 311, 313, 315, 317, 
, 319, 321, 323, 325, 327, 329, 331, 333, 
$ ... 815 like lines cut
$*
AERO, , , 125.0, 9.97e-07,
$*
$*
MKAERO1, 1.00000000E-03
,0.01, 0.0137, 0.0189, 0.0259, 0.0356, 0.0489, 0.0672, 
MKAERO1, 1.00000000E-03
,0.0924, 0.1269, 0.1743, 0.2395, 0.329, 0.452, 0.621, 
MKAERO1, 1.00000000E-03
,0.8532, 1.1721, 1.6103, 2.2122, 3.0392, 4.1753, 5.7362, 
MKAERO1, 1.00000000E-03
,7.8805, 10.8264, 14.8735, 20.4336, 28.0722, 38.5662, 52.9832, 
MKAERO1, 1.00000000E-03
,72.7895, 100.0, 
MKAERO1, 3.51034483E-02
,0.01, 0.0137, 0.0189, 0.0259, 0.0356, 0.0489, 0.0672, 
MKAERO1, 3.51034483E-02
,0.0924, 0.1269, 0.1743, 0.2395, 0.329, 0.452, 0.621, 
MKAERO1, 3.51034483E-02
,0.8532, 1.1721, 1.6103, 2.2122, 3.0392, 4.1753, 5.7362, 
MKAERO1, 3.51034483E-02
,7.8805, 10.8264, 14.8735, 20.4336, 28.0722, 38.5662, 52.9832, 
MKAERO1, 3.51034483E-02
,72.7895, 100.0, 
MKAERO1, 6.92068966E-02
,0.01, 0.0137, 0.0189, 0.0259, 0.0356, 0.0489, 0.0672, 
MKAERO1, 6.92068966E-02
,0.0924, 0.1269, 0.1743, 0.2395, 0.329, 0.452, 0.621, 
MKAERO1, 6.92068966E-02
,0.8532, 1.1721, 1.6103, 2.2122, 3.0392, 4.1753, 5.7362, 
MKAERO1, 6.92068966E-02
,7.8805, 10.8264, 14.8735, 20.4336, 28.0722, 38.5662, 52.9832, 
MKAERO1, 6.92068966E-02
,72.7895, 100.0, 
MKAERO1, 1.03310345E-01
,0.01, 0.0137, 0.0189, 0.0259, 0.0356, 0.0489, 0.0672, 
MKAERO1, 1.03310345E-01
,0.0924, 0.1269, 0.1743, 0.2395, 0.329, 0.452, 0.621, 
MKAERO1, 1.03310345E-01
,0.8532, 1.1721, 1.6103, 2.2122, 3.0392, 4.1753, 5.7362, 
MKAERO1, 1.03310345E-01
,7.8805, 10.8264, 14.8735, 20.4336, 28.0722, 38.5662, 52.9832, 
MKAERO1, 1.03310345E-01
,72.7895, 100.0, 
$ ... 260 like lines cut
$*
$ FLFACT and FLUTTER Cards
$ Density
FLFACT, 10, 1.0
$ Mach numbers
FLFACT, 20, 1.03523167E-02
$ Velocities
FLFACT, 30, 2.33E+03, 5.02E+03, 7.45E+03, 9.93E+03, 1.24E+04, 1.49E+04, 1.74E+04
, 2.01E+04, 2.10E+04, 2.24E+04, 2.40E+04, 2.79E+04
$*
FLUTTER, 200, PK, 10, 20, 30
$*
$* Constraints and loads
$* SPCs
$*
SPC1, 100, 123456, 1
SPC1, 100, 123456, 13374
SPC1, 100, 123456, 2
SPC1, 100, 123456, 13373
SPC1, 100, 123456, 3
SPC1, 100, 123456, 13372
SPC1, 100, 123456, 4
SPC1, 100, 123456, 13371
SPC1, 100, 123456, 5
SPC1, 100, 123456, 13370
SPC1, 100, 123456, 6
SPC1, 100, 123456, 13369
SPC1, 100, 123456, 7
SPC1, 100, 123456, 13368
SPC1, 100, 123456, 8
SPC1, 100, 123456, 13367
SPC1, 100, 123456, 9
SPC1, 100, 123456, 13366
SPC1, 100, 123456, 10
SPC1, 100, 123456, 13365
$ ... 968 like lines cut
$*
$*
ENDDATA