
    $*$$$$$$$$$$$$$$$$$$$$$$$$$$$$$$$$$$$$$$$$$$$$$$$$$$$$$$$$$$$$$$$$$
$*
$*                    Aeroelasticity approximation of hydrodynamic damping
$*                    for Simcenter Nastran version 2020.2
$*
$*        ANALYSIS TYPE: Structural
$*        SOLUTION NAME: Modes
$*        SOLUTION TYPE: SOL 103 Real Eigenvalues
$*
$*                UNITS: mm (milli-newton)
$*                      ... LENGTH : mm
$*                      ... TIME   : sec
$*                      ... MASS   : kilogram (kg)
$*                      ... TEMPERATURE : deg Celsius
$*                      ... FORCE  : milli-newton
$*                      ... THERMAL ENERGY : mN-mm (micro-joule)
$*
$*$$$$$$$$$$$$$$$$$$$$$$$$$$$$$$$$$$$$$$$$$$$$$$$$$$$$$$$$$$$$$$$$$
$*
$*$$$$$$$$$$$$$$$$$$$$$$$$$$$$$$$$$$$
$*
$* FILE MANAGEMENT
$*
$*$$$$$$$$$$$$$$$$$$$$$$$$$$$$$$$$$$$
$*
$*
$*$$$$$$$$$$$$$$$$$$$$$$$$$$$$$$$$$$$
$*
$* EXECUTIVE CONTROL
$*
$*$$$$$$$$$$$$$$$$$$$$$$$$$$$$$$$$$$$
$*
ID, modal analysis
SOL 103
CEND
$*
$*$$$$$$$$$$$$$$$$$$$$$$$$$$$$$$$$$$$
$*
$* CASE CONTROL
$*
$*$$$$$$$$$$$$$$$$$$$$$$$$$$$$$$$$$$$
$*
ECHO = NONE
SPC = 100
METHOD = 101
OUTPUT
AEROF = ALL
APRESSURE = ALL
DISPLACEMENT(PLOT,REAL) = ALL
EDE(PLOT,AVERAGE,RMAG) = ALL
FORCE(PLOT,REAL,CENTER) = ALL
SPCFORCES(PLOT,REAL) = ALL
STRESS(PLOT,REAL,VONMISES,CENTER) = ALL
$*  Step: Subcase - Static Loads 1
SUBCASE 1
  LABEL = Subcase - Eigenvalue Method 1
  METHOD = 101
  OUTPUT
  AEROF = ALL
  APRESSURE = ALL
  DISPLACEMENT(PLOT,REAL) = ALL
  EDE(PLOT,AVERAGE,RMAG) = ALL
  FORCE(PLOT,REAL,CENTER) = ALL
  SPCFORCES(PLOT,REAL) = ALL
  STRESS(PLOT,REAL,VONMISES,CENTER) = ALL
$*
$*$$$$$$$$$$$$$$$$$$$$$$$$$$$$$$$$$$$
$*
$* BULK DATA
$*
$*$$$$$$$$$$$$$$$$$$$$$$$$$$$$$$$$$$$
$*
BEGIN BULK
$*
$* SOLUTION CARDS
$*
$*  Modeling Object: Real Eigenvalue - Lanczos1
EIGRL, 101, 10.0000, 30.0E3, 50, 0, 7, , MASS
$* PARAM CARDS
$*
PARAM      K6ROT100.0000
PARAM     OIBULK     YES
PARAM    OMACHPR     YES
PARAM       POST      -2
PARAM    POSTEXT     YES
PARAM    UNITSYS   MN-MM
$*
$* Materials and properties
$*
$* Material used
MAT1, 1, 115000000.0, , 0.33, 7.8e-06
$* Solid property
PSOLID, 1, 1
$*
$* Elements
$* Element CARDS: Pentahedrons
$*
CPENTA, 1, 1, 33, 66, 3, 206, 239, 176
, 77, 78, 79, 164, 165, 134, 250, 251
, 252
CPENTA, 2, 1, 24, 12, 69, 197, 185, 242
, 80, 81, 82, 155, 143, 166, 253, 254
, 255
CPENTA, 3, 1, 12, 24, 70, 185, 197, 243
, 80, 83, 84, 143, 155, 167, 253, 256
, 257
CPENTA, 4, 1, 13, 23, 69, 186, 196, 242
, 85, 86, 87, 144, 154, 166, 258, 259
, 260
CPENTA, 5, 1, 23, 13, 71, 196, 186, 244
, 85, 88, 89, 154, 144, 168, 258, 261
, 262
CPENTA, 6, 1, 25, 11, 70, 198, 184, 243
, 90, 91, 92, 156, 142, 167, 263, 264
, 265
CPENTA, 7, 1, 11, 25, 72, 184, 198, 245
, 90, 93, 94, 142, 156, 169, 263, 266
, 267
CPENTA, 8, 1, 14, 22, 71, 187, 195, 244
, 95, 96, 97, 145, 153, 168, 268, 269
, 270
CPENTA, 9, 1, 26, 10, 72, 199, 183, 245
, 98, 99, 100, 157, 141, 169, 271, 272
, 273
CPENTA, 10, 1, 22, 14, 73, 195, 187, 246
, 95, 101, 102, 153, 145, 170, 268, 274
, 275
CPENTA, 11, 1, 10, 26, 74, 183, 199, 247
, 98, 103, 104, 141, 157, 171, 271, 276
, 277
CPENTA, 12, 1, 27, 9, 74, 200, 182, 247
, 105, 106, 107, 158, 140, 171, 278, 279
, 280
CPENTA, 13, 1, 15, 21, 73, 188, 194, 246
, 108, 109, 110, 146, 152, 170, 281, 282
, 283
CPENTA, 14, 1, 9, 27, 75, 182, 200, 248
, 105, 111, 112, 140, 158, 172, 278, 284
, 285
CPENTA, 15, 1, 21, 15, 76, 194, 188, 249
, 108, 113, 114, 152, 146, 173, 281, 286
, 287
CPENTA, 16, 1, 28, 8, 75, 201, 181, 248
, 115, 116, 117, 159, 139, 172, 288, 289
, 290
CPENTA, 17, 1, 16, 20, 76, 189, 193, 249
, 118, 119, 120, 147, 151, 173, 291, 292
, 293
CPENTA, 18, 1, 8, 9, 75, 181, 182, 248
, 40, 112, 116, 139, 140, 172, 213, 285
, 289
CPENTA, 19, 1, 9, 10, 74, 182, 183, 247
, 41, 104, 106, 140, 141, 171, 214, 277
, 279
CPENTA, 20, 1, 10, 11, 72, 183, 184, 245
, 42, 94, 99, 141, 142, 169, 215, 267
, 272
$ ... 2820 like lines cut
$*
$* GRID CARDS
$*
GRID, 1, , 95.0, 0.0, 0.5152, , 456 
GRID, 2, , 95.0, 0.0, -0.5152, , 456 
GRID, 3, , 89.0563, 0.0, 0.6558, , 456 
GRID, 4, , 83.1124, 0.0, 0.7875, , 456 
GRID, 5, , 77.1683, 0.0, 0.9105, , 456 
GRID, 6, , 71.2241, 0.0, 1.024, , 456 
GRID, 7, , 65.2796, 0.0, 1.1273, , 456 
GRID, 8, , 59.335, 0.0, 1.2189, , 456 
GRID, 9, , 53.3902, 0.0, 1.2971, , 456 
GRID, 10, , 47.4451, 0.0, 1.3596, , 456 
GRID, 11, , 41.4999, 0.0, 1.4033, , 456 
GRID, 12, , 35.5546, 0.0, 1.4243, , 456 
GRID, 13, , 29.6093, 0.0, 1.4172, , 456 
GRID, 14, , 23.6641, 0.0, 1.3746, , 456 
GRID, 15, , 17.7195, 0.0, 1.2851, , 456 
GRID, 16, , 11.7762, 0.0, 1.1284, , 456 
GRID, 17, , 5.8373, 0.0, 0.8562, , 456 
GRID, 18, , 0.0, 0.0, -0.0, , 456 
GRID, 19, , 5.8373, 0.0, -0.8562, , 456 
GRID, 20, , 11.7762, 0.0, -1.1284, , 456 
$ ... 3571 like lines cut
$*
$* Constraints and loads
$* SPCs
$*
SPC1, 100, 123456, 1
SPC1, 100, 123456, 3591
SPC1, 100, 123456, 2
SPC1, 100, 123456, 3590
SPC1, 100, 123456, 3
SPC1, 100, 123456, 3589
SPC1, 100, 123456, 4
SPC1, 100, 123456, 3588
SPC1, 100, 123456, 5
SPC1, 100, 123456, 3587
SPC1, 100, 123456, 6
SPC1, 100, 123456, 3586
SPC1, 100, 123456, 7
SPC1, 100, 123456, 3585
SPC1, 100, 123456, 8
SPC1, 100, 123456, 3584
SPC1, 100, 123456, 9
SPC1, 100, 123456, 3583
SPC1, 100, 123456, 10
SPC1, 100, 123456, 3582
$ ... 242 like lines cut
$*
$*
ENDDATA